LAMMPS (30 Jul 2021)
# Define variables
# Starting temperature:
variable T equal 1
# Number of particles:
variable N equal 100
# Density:
variable rho equal 0.002
# Length of sides of cubic box
variable L equal (100/0.002)^(1/3)
# How much heat to add per timestep
variable eFlux equal 1

# Use Lennard-Jones units, periodic boundaries and atomic model
units lj
boundary p p p
atom_style atomic

# Define the space and put atoms in
dimension 3
region simbox block 0 $L 0 $L 0 $L
region simbox block 0 36.8403149864039 0 $L 0 $L
region simbox block 0 36.8403149864039 0 36.8403149864039 0 $L
region simbox block 0 36.8403149864039 0 36.8403149864039 0 36.8403149864039
create_box 1 simbox
Created orthogonal box = (0.0000000 0.0000000 0.0000000) to (36.840315 36.840315 36.840315)

# Define properties of the atoms

create_atoms 1 random $N 12345 simbox
create_atoms 1 random 100 12345 simbox
Created 100 atoms
mass 1 1.0
velocity all create $T 87287
velocity all create 1 87287
pair_style lj/cut 2.5
pair_coeff 1 1 1.0 1.0 2.5

#make sure no explosion happens
minimize 1e-4 1e-4 100 100
  update every 1 steps, delay 0 steps, check yes
Step Temp E_pair E_mol TotEng Press
0            1 -0.011299568            0    1.4737004  0.001955247
Loop time of 0 on 1 procs for 25 steps with 100 atoms

Minimization stats:
  Stopping criterion = energy tolerance
  Energy initial, next-to-last, final =
  Force two-norm initial, final = 3.0004077 0.65002160
  Force max component initial, final = 1.9186049 0.26024463
  Final line search alpha, max atom move = 0.021535797 0.0056045754
  Iterations, force evaluations = 25 81

# Speed up simulation with neighbour lists
neighbor 0.3 bin
neigh_modify every 20 delay 0 check yes

# Define thermodynamic ensemble for thermalization
fix nvt all nvt temp $T $T 1
fix nvt all nvt temp 1 $T 1
fix nvt all nvt temp 1 1 1

#Thermalization run
run 10000
Step Temp E_pair E_mol TotEng Press
25            1 -0.059982503            0    1.4250175 0.0019843421
Loop time of 0.039016 on 1 procs for 10000 steps with 100 atoms

# Define thermodynamic ensemble for long run
unfix nvt
fix nve all nve

# Start heat addition and run to stabilize
fix heat all heat 1 1 region simbox
run 1000
Step Temp E_pair E_mol TotEng Press
10025    1.1496702 -0.0035544004            0    1.7037058 0.0022626296
Loop time of 0.00900912 on 1 procs for 1000 steps with 100 atoms

#Define new thermodynamic output and trajectory dump and start production run
thermo_style custom time temp press pe ke epair etotal
thermo 100
dump 1 all custom 100 dump.lammpstrj id x y z vx vy vz
run 100000
Time Temp Press PotEng KinEng E_pair TotEng
Loop time of 1.47702 on 1 procs for 100000 steps with 100 atoms
